! This hub-height wind-speed file was generated by TurbSim (v1.06.00, 21-Sep-2012) on 28-Mar-2019 at 10:53:31.
!
! The requested statistics for this data were:
!    Mean Total Wind Speed =    8.000 m/s
!
!   Time  HorSpd  WndDir  VerSpd  HorShr  VerShr  LnVShr  GstSpd
!  (sec)   (m/s)   (deg)   (m/s)     (-)     (-)     (-)   (m/s)
   0.000    14.00    0.00    0.00   0.000   0.200   0.000    0.00
   0.005    14.00    0.00    0.00   0.000   0.200   0.000    0.00
   39.995   14.00    0.00    0.00   0.000   0.200   0.000    0.00
   40.000   16.00    0.00    0.00   0.000   0.200   0.000    0.00
   79.995   16.00    0.00    0.00   0.000   0.200   0.000    0.00
   80.000   18.00    0.00    0.00   0.000   0.200   0.000    0.00
  119.995   18.00    0.00    0.00   0.000   0.200   0.000    0.00
  120.000   20.00    0.00    0.00   0.000   0.200   0.000    0.00
  159.995   20.00    0.00    0.00   0.000   0.200   0.000    0.00
  160.000   22.00    0.00    0.00   0.000   0.200   0.000    0.00
  200.000   22.00    0.00    0.00   0.000   0.200   0.000    0.00
  206.500   22.00    0.00    0.00   0.000   0.200   0.000    0.00
  
  
